LAMMPS (29 Sep 2021 - Update 1)
# ------------- LAMMPS input script
# ------------- author : Simon Gravelle
# ------------- lammpstutorials.github.io

# ------------- Initialisation
boundary		p p p
units			real
atom_style		full
bond_style		harmonic
angle_style		harmonic
pair_style		lj/cut/tip4p/long 1 2 1 1 0.1546 12.0
kspace_style	pppm/tip4p 1.0e-4

# ------------- System definition
read_data		data.02.lammps
Reading data file ...
  orthogonal box = (-20.200000 -20.200000 -52.520000) to (20.200000 20.200000 52.520000)
  reading atoms ...
  7760 atoms
  reading velocities ...
  7760 velocities
  scanning bonds ...
  scanning angles ...
  reading bonds ...
  3800 bonds
  reading angles ...
  1900 angles
Finding 1-2 1-3 1-4 neighbors ...
     2 = max # of 1-2 neighbors
     1 = max # of 1-3 neighbors
     1 = max # of 1-4 neighbors
     2 = max # of special neighbors

# ------------- Simulation settings
include			PARM.lammps
# --------- LAMMPS parameter script
# --------- author : Simon Gravelle
# --------- lammpstutorials.github.io

mass 		1 15.9994
mass 		2 1.008
mass		3 28.990
mass		4 35.453
mass		5 26.9815
mass		6 26.9815

pair_coeff 	1 1 0.185199 3.1589
pair_coeff 	2 2 0.0 0.0
pair_coeff	3 3 0.04690 2.4299
pair_coeff	4 4 0.1500 4.04470
pair_coeff	5 5 11.697 3.55
pair_coeff	6 6 11.697 3.55

bond_coeff 	1 0 0.9572

angle_coeff 1 0 104.52
group			gH2O type 1 2
5700 atoms in group gH2O
group			gNa type 3
30 atoms in group gNa
group			gCl type 4
30 atoms in group gCl
group			gliquid type 1 2 3 4
5760 atoms in group gliquid
group			gtopwall type 5
1000 atoms in group gtopwall
group			gbotwall type 6
1000 atoms in group gbotwall
group			gwall type 5 6
2000 atoms in group gwall
dump 			mydmp all atom 1000 dump.03.lammpstrj

# ------------- Run

# ------------- To maintain the wall rigid
fix				mysf1 gtopwall setforce 0 0 NULL
fix				mysf2 gbotwall setforce 0 0 NULL
fix				myaf1 gtopwall aveforce NULL NULL 0
fix				myaf2 gbotwall aveforce NULL NULL 0
neigh_modify 	exclude group gwall gwall

# ------------- Dynamics
fix				mynve all nve
compute			tliq gliquid temp
fix				myber gliquid temp/berendsen 300 300 100
fix_modify		myber temp tliq
fix				myshk gH2O shake 1.0e-4 200 0 b 1 a 1
       0 = # of size 2 clusters
       0 = # of size 3 clusters
       0 = # of size 4 clusters
    1900 = # of frozen angles
  find clusters CPU = 0.001 seconds
fix				myrct all recenter NULL NULL INIT

timestep		1.0
thermo			5000
thermo_modify 	temp tliq
run				50000
PPPM initialization ...
  extracting TIP4P info from pair style
  G vector (1/distance) = 0.21535857
  grid = 18 18 36
  stencil order = 5
  estimated absolute RMS force accuracy = 0.033546564
  estimated relative force accuracy = 0.00010102448
  3d grid and FFT values/proc = 8750 2916
  update every 1 steps, delay 10 steps, check yes
Step Temp E_pair E_mol TotEng Press
0    1.5577489   -16148.568            0    -16130.65   -4941.8822
Averages over the last 6 of 11 rows, steps 25000 to 50000:
Temp E_pair E_mol TotEng Press
301.615 -32527.7 0 -29058.2 -266.747
Loop time of 2014.24 on 4 procs for 50000 steps with 7760 atoms

write_data		data.03.lammps
System init for write_data ...
PPPM initialization ...
  extracting TIP4P info from pair style
  G vector (1/distance) = 0.21535857
  grid = 18 18 36
  stencil order = 5
  estimated absolute RMS force accuracy = 0.033546564
  estimated relative force accuracy = 0.00010102448
  3d grid and FFT values/proc = 8750 2916
